<?xml version='1.0' encoding='utf-8'?>
<nodes><node id="TL" x="0" y="0" type="traffic_light" tl="TL" /><node id="N" x="0" y="200" /><node id="S" x="0" y="-200" /><node id="E" x="200" y="0" /><node id="W" x="-200" y="0" /></nodes>