<?xml version='1.0' encoding='utf-8'?>
<additional><tlLogic id="TL" type="static" programID="dqn" offset="0"><phase duration="31" state="GGGggrrrrrrrrrrrrrrr" /><phase duration="3" state="yyyyyrrrrrrrrrrrrrrr" /><phase duration="31" state="rrrrrGGGggrrrrrrrrrr" /><phase duration="3" state="rrrrryyyyyrrrrrrrrrr" /><phase duration="31" state="rrrrrrrrrrGGGggrrrrr" /><phase duration="3" state="rrrrrrrrrryyyyyrrrrr" /><phase duration="31" state="rrrrrrrrrrrrrrrGGGgg" /><phase duration="3" state="rrrrrrrrrrrrrrryyyyy" /></tlLogic></additional>