<?xml version='1.0' encoding='utf-8'?>
<routes><vType id="passenger" accel="2.6" decel="4.5" sigma="0.5" length="5" minGap="2.5" maxSpeed="13.89" guiShape="passenger" /><vType id="emergency" accel="3.0" decel="5.0" sigma="0.3" length="7" minGap="2.5" maxSpeed="20" guiShape="emergency" color="1,0,0" /><vType id="bus" accel="1.8" decel="4.0" sigma="0.5" length="12" minGap="3" maxSpeed="11.11" guiShape="bus" /><vType id="truck" accel="2.0" decel="4.0" sigma="0.5" length="10" minGap="3" maxSpeed="11.11" guiShape="truck" /><route id="n_s" edges="N2TL TL2S" /><route id="n_e" edges="N2TL TL2E" /><route id="n_w" edges="N2TL TL2W" /><route id="s_n" edges="S2TL TL2N" /><route id="s_e" edges="S2TL TL2E" /><route id="s_w" edges="S2TL TL2W" /><route id="e_w" edges="E2TL TL2W" /><route id="e_n" edges="E2TL TL2N" /><route id="e_s" edges="E2TL TL2S" /><route id="w_e" edges="W2TL TL2E" /><route id="w_n" edges="W2TL TL2N" /><route id="w_s" edges="W2TL TL2S" /><vehicle id="veh_0" type="passenger" route="n_s" depart="0" /><vehicle id="veh_1" type="passenger" route="s_n" depart="3" /><vehicle id="veh_2" type="passenger" route="w_n" depart="4" /><vehicle id="veh_3" type="passenger" route="w_e" depart="6" /><vehicle id="veh_4" type="passenger" route="n_e" depart="8" /><vehicle id="veh_5" type="passenger" route="e_s" depart="10" /><vehicle id="veh_6" type="passenger" route="s_n" depart="15" /><vehicle id="veh_7" type="passenger" route="n_s" depart="16" /><vehicle id="veh_8" type="passenger" route="w_s" depart="17" /><vehicle id="veh_9" type="passenger" route="n_w" depart="20" /><vehicle id="veh_10" type="passenger" route="n_e" depart="22" /><vehicle id="veh_11" type="bus" route="s_w" depart="22" /><vehicle id="veh_12" type="passenger" route="n_s" depart="26" /><vehicle id="veh_13" type="passenger" route="e_w" depart="26" /><vehicle id="veh_14" type="passenger" route="w_n" depart="30" /><vehicle id="veh_15" type="passenger" route="w_e" depart="32" /><vehicle id="veh_16" type="passenger" route="n_s" depart="32" /><vehicle id="veh_17" type="bus" route="n_e" depart="36" /><vehicle id="veh_18" type="passenger" route="e_w" depart="36" /><vehicle id="veh_19" type="passenger" route="n_w" depart="40" /><vehicle id="veh_20" type="passenger" route="w_n" depart="41" /><vehicle id="veh_21" type="passenger" route="w_e" depart="42" /><vehicle id="veh_22" type="passenger" route="n_w" depart="45" /><vehicle id="veh_23" type="passenger" route="w_n" depart="48" /><vehicle id="veh_24" type="passenger" route="w_n" depart="49" /><vehicle id="veh_25" type="bus" route="s_n" depart="50" /><vehicle id="veh_26" type="passenger" route="e_w" depart="54" /><vehicle id="veh_27" type="bus" route="w_e" depart="55" /><vehicle id="veh_28" type="passenger" route="s_n" depart="58" /><vehicle id="veh_29" type="passenger" route="w_n" depart="61" /><vehicle id="veh_30" type="passenger" route="n_w" depart="62" /><vehicle id="veh_31" type="passenger" route="w_s" depart="64" /><vehicle id="veh_32" type="passenger" route="s_w" depart="67" /><vehicle id="veh_33" type="passenger" route="e_s" depart="67" /><vehicle id="veh_34" type="passenger" route="n_e" depart="68" /><vehicle id="veh_35" type="passenger" route="w_n" depart="71" /><vehicle id="veh_36" type="passenger" route="e_w" depart="72" /><vehicle id="veh_37" type="passenger" route="e_s" depart="77" /><vehicle id="veh_38" type="passenger" route="w_n" depart="76" /><vehicle id="veh_39" type="passenger" route="w_n" depart="80" /><vehicle id="veh_40" type="passenger" route="e_w" depart="82" /><vehicle id="veh_41" type="bus" route="w_s" depart="82" /><vehicle id="veh_42" type="passenger" route="e_s" depart="86" /><vehicle id="veh_43" type="passenger" route="w_n" depart="86" /><vehicle id="veh_44" type="passenger" route="n_w" depart="89" /><vehicle id="veh_45" type="truck" route="e_s" depart="91" /><vehicle id="veh_46" type="passenger" route="w_e" depart="92" /><vehicle id="veh_47" type="truck" route="n_e" depart="94" /><vehicle id="veh_48" type="passenger" route="s_n" depart="98" /><vehicle id="veh_49" type="passenger" route="n_e" depart="98" /><vehicle id="veh_50" type="passenger" route="e_s" depart="100" /><vehicle id="veh_51" type="passenger" route="w_n" depart="103" /><vehicle id="veh_52" type="passenger" route="s_e" depart="105" /><vehicle id="veh_53" type="truck" route="s_n" depart="109" /><vehicle id="veh_54" type="passenger" route="w_s" depart="109" /><vehicle id="veh_55" type="bus" route="e_n" depart="112" /><vehicle id="veh_56" type="passenger" route="n_e" depart="115" /><vehicle id="veh_57" type="passenger" route="s_w" depart="114" /><vehicle id="veh_58" type="passenger" route="w_e" depart="117" /><vehicle id="veh_59" type="passenger" route="w_s" depart="118" /><vehicle id="veh_60" type="truck" route="n_e" depart="121" /><vehicle id="veh_61" type="passenger" route="n_e" depart="124" /><vehicle id="veh_62" type="passenger" route="w_n" depart="126" /><vehicle id="veh_63" type="truck" route="w_s" depart="127" /><vehicle id="veh_64" type="passenger" route="s_n" depart="131" /><vehicle id="veh_65" type="passenger" route="s_n" depart="133" /><vehicle id="veh_66" type="passenger" route="s_w" depart="135" /><vehicle id="veh_67" type="passenger" route="w_s" depart="137" /><vehicle id="veh_68" type="passenger" route="n_s" depart="136" /><vehicle id="veh_69" type="passenger" route="n_e" depart="140" /><vehicle id="veh_70" type="passenger" route="e_s" depart="141" /><vehicle id="veh_71" type="passenger" route="n_w" depart="145" /><vehicle id="veh_72" type="passenger" route="n_e" depart="145" /><vehicle id="veh_73" type="passenger" route="n_s" depart="146" /><vehicle id="veh_74" type="truck" route="n_e" depart="148" /><vehicle id="veh_75" type="passenger" route="n_w" depart="151" /><vehicle id="veh_76" type="bus" route="s_n" depart="155" /><vehicle id="veh_77" type="passenger" route="n_w" depart="154" /><vehicle id="veh_78" type="truck" route="s_e" depart="159" /><vehicle id="veh_79" type="passenger" route="s_e" depart="161" /><vehicle id="veh_80" type="passenger" route="n_w" depart="163" /><vehicle id="veh_81" type="passenger" route="n_s" depart="163" /><vehicle id="veh_82" type="passenger" route="w_s" depart="164" /><vehicle id="veh_83" type="passenger" route="w_e" depart="166" /><vehicle id="veh_84" type="truck" route="n_s" depart="169" /><vehicle id="veh_85" type="passenger" route="n_w" depart="170" /><vehicle id="veh_86" type="bus" route="w_n" depart="172" /><vehicle id="veh_87" type="truck" route="n_e" depart="177" /><vehicle id="veh_88" type="passenger" route="w_e" depart="177" /><vehicle id="veh_89" type="passenger" route="e_w" depart="178" /><vehicle id="veh_90" type="passenger" route="s_e" depart="182" /><vehicle id="veh_91" type="passenger" route="s_n" depart="184" /><vehicle id="veh_92" type="passenger" route="w_n" depart="185" /><vehicle id="veh_93" type="truck" route="s_w" depart="189" /><vehicle id="veh_94" type="passenger" route="n_s" depart="188" /><vehicle id="veh_95" type="passenger" route="n_e" depart="190" /><vehicle id="veh_96" type="truck" route="n_w" depart="194" /><vehicle id="veh_97" type="passenger" route="s_n" depart="194" /><vehicle id="veh_98" type="bus" route="e_n" depart="197" /><vehicle id="veh_99" type="emergency" route="w_e" depart="200" /><vehicle id="veh_100" type="bus" route="w_n" depart="200" /><vehicle id="veh_101" type="passenger" route="w_n" depart="204" /><vehicle id="veh_102" type="passenger" route="s_e" depart="205" /><vehicle id="veh_103" type="passenger" route="w_s" depart="206" /><vehicle id="veh_104" type="passenger" route="s_e" depart="210" /><vehicle id="veh_105" type="passenger" route="s_n" depart="212" /><vehicle id="veh_106" type="passenger" route="e_s" depart="214" /><vehicle id="veh_107" type="passenger" route="n_e" depart="214" /><vehicle id="veh_108" type="passenger" route="n_s" depart="218" /><vehicle id="veh_109" type="truck" route="w_n" depart="219" /><vehicle id="veh_110" type="passenger" route="w_s" depart="221" /><vehicle id="veh_111" type="passenger" route="e_s" depart="225" /><vehicle id="veh_112" type="truck" route="w_s" depart="224" /><vehicle id="veh_113" type="passenger" route="s_w" depart="226" /><vehicle id="veh_114" type="passenger" route="e_w" depart="229" /><vehicle id="veh_115" type="bus" route="s_w" depart="232" /><vehicle id="veh_116" type="passenger" route="s_w" depart="232" /><vehicle id="veh_117" type="passenger" route="w_n" depart="235" /><vehicle id="veh_118" type="passenger" route="w_e" depart="239" /><vehicle id="veh_119" type="truck" route="n_w" depart="239" /><vehicle id="veh_120" type="passenger" route="e_w" depart="241" /><vehicle id="veh_121" type="bus" route="e_w" depart="244" /><vehicle id="veh_122" type="passenger" route="s_e" depart="245" /><vehicle id="veh_123" type="bus" route="e_w" depart="246" /><vehicle id="veh_124" type="passenger" route="s_n" depart="251" /><vehicle id="veh_125" type="passenger" route="s_w" depart="253" /><vehicle id="veh_126" type="passenger" route="s_n" depart="253" /><vehicle id="veh_127" type="passenger" route="e_w" depart="255" /><vehicle id="veh_128" type="passenger" route="s_e" depart="256" /><vehicle id="veh_129" type="emergency" route="w_n" depart="261" /><vehicle id="veh_130" type="passenger" route="n_s" depart="262" /><vehicle id="veh_131" type="passenger" route="n_w" depart="264" /><vehicle id="veh_132" type="passenger" route="n_s" depart="266" /><vehicle id="veh_133" type="passenger" route="s_w" depart="269" /><vehicle id="veh_134" type="passenger" route="e_w" depart="270" /><vehicle id="veh_135" type="bus" route="e_w" depart="270" /><vehicle id="veh_136" type="passenger" route="s_e" depart="273" /><vehicle id="veh_137" type="passenger" route="n_s" depart="277" /><vehicle id="veh_138" type="passenger" route="s_w" depart="277" /><vehicle id="veh_139" type="passenger" route="w_e" depart="280" /><vehicle id="veh_140" type="truck" route="w_s" depart="280" /><vehicle id="veh_141" type="passenger" route="w_n" depart="284" /><vehicle id="veh_142" type="passenger" route="w_s" depart="287" /><vehicle id="veh_143" type="passenger" route="s_n" depart="287" /><vehicle id="veh_144" type="passenger" route="w_n" depart="291" /><vehicle id="veh_145" type="passenger" route="w_e" depart="291" /><vehicle id="veh_146" type="bus" route="e_s" depart="295" /><vehicle id="veh_147" type="passenger" route="s_e" depart="296" /><vehicle id="veh_148" type="passenger" route="e_n" depart="298" /><vehicle id="veh_149" type="passenger" route="e_s" depart="299" /><vehicle id="veh_150" type="passenger" route="w_n" depart="301" /><vehicle id="veh_151" type="bus" route="n_e" depart="304" /><vehicle id="veh_152" type="passenger" route="w_n" depart="305" /><vehicle id="veh_153" type="passenger" route="n_w" depart="307" /><vehicle id="veh_154" type="passenger" route="e_n" depart="309" /><vehicle id="veh_155" type="passenger" route="e_n" depart="310" /><vehicle id="veh_156" type="passenger" route="w_s" depart="313" /><vehicle id="veh_157" type="passenger" route="e_w" depart="317" /><vehicle id="veh_158" type="passenger" route="n_e" depart="316" /><vehicle id="veh_159" type="bus" route="n_w" depart="319" /><vehicle id="veh_160" type="passenger" route="n_s" depart="323" /><vehicle id="veh_161" type="passenger" route="e_n" depart="322" /><vehicle id="veh_162" type="passenger" route="w_n" depart="327" /><vehicle id="veh_163" type="passenger" route="e_n" depart="328" /><vehicle id="veh_164" type="passenger" route="e_s" depart="331" /><vehicle id="veh_165" type="bus" route="w_s" depart="331" /><vehicle id="veh_166" type="passenger" route="s_e" depart="335" /><vehicle id="veh_167" type="passenger" route="e_s" depart="336" /><vehicle id="veh_168" type="passenger" route="s_e" depart="337" /><vehicle id="veh_169" type="passenger" route="s_n" depart="340" /><vehicle id="veh_170" type="passenger" route="e_s" depart="342" /><vehicle id="veh_171" type="passenger" route="s_n" depart="343" /><vehicle id="veh_172" type="passenger" route="w_s" depart="345" /><vehicle id="veh_173" type="passenger" route="e_w" depart="349" /><vehicle id="veh_174" type="passenger" route="e_w" depart="351" /><vehicle id="veh_175" type="truck" route="e_w" depart="353" /><vehicle id="veh_176" type="passenger" route="w_e" depart="352" /><vehicle id="veh_177" type="passenger" route="s_w" depart="354" /><vehicle id="veh_178" type="passenger" route="e_w" depart="359" /><vehicle id="veh_179" type="passenger" route="e_n" depart="359" /><vehicle id="veh_180" type="passenger" route="e_n" depart="363" /><vehicle id="veh_181" type="passenger" route="w_n" depart="364" /><vehicle id="veh_182" type="passenger" route="w_s" depart="367" /><vehicle id="veh_183" type="emergency" route="n_w" depart="369" /><vehicle id="veh_184" type="passenger" route="e_w" depart="368" /><vehicle id="veh_185" type="passenger" route="n_e" depart="370" /><vehicle id="veh_186" type="passenger" route="e_n" depart="373" /><vehicle id="veh_187" type="passenger" route="e_w" depart="376" /><vehicle id="veh_188" type="passenger" route="s_w" depart="379" /><vehicle id="veh_189" type="passenger" route="s_e" depart="381" /><vehicle id="veh_190" type="bus" route="s_e" depart="383" /><vehicle id="veh_191" type="passenger" route="n_s" depart="385" /><vehicle id="veh_192" type="passenger" route="s_w" depart="384" /><vehicle id="veh_193" type="passenger" route="w_n" depart="386" /><vehicle id="veh_194" type="passenger" route="s_n" depart="388" /><vehicle id="veh_195" type="passenger" route="w_e" depart="390" /><vehicle id="veh_196" type="passenger" route="e_n" depart="393" /><vehicle id="veh_197" type="passenger" route="e_n" depart="395" /><vehicle id="veh_198" type="passenger" route="n_w" depart="398" /><vehicle id="veh_199" type="truck" route="n_w" depart="398" /><vehicle id="veh_200" type="passenger" route="w_e" depart="400" /><vehicle id="veh_201" type="passenger" route="w_e" depart="404" /><vehicle id="veh_202" type="truck" route="e_w" depart="407" /><vehicle id="veh_203" type="passenger" route="n_e" depart="407" /><vehicle id="veh_204" type="passenger" route="n_e" depart="409" /><vehicle id="veh_205" type="passenger" route="w_n" depart="412" /><vehicle id="veh_206" type="passenger" route="w_e" depart="412" /><vehicle id="veh_207" type="passenger" route="e_s" depart="416" /><vehicle id="veh_208" type="passenger" route="n_e" depart="418" /><vehicle id="veh_209" type="bus" route="n_s" depart="420" /><vehicle id="veh_210" type="passenger" route="n_e" depart="423" /><vehicle id="veh_211" type="bus" route="w_n" depart="424" /><vehicle id="veh_212" type="passenger" route="w_s" depart="427" /><vehicle id="veh_213" type="passenger" route="w_s" depart="427" /><vehicle id="veh_214" type="bus" route="w_e" depart="430" /><vehicle id="veh_215" type="passenger" route="e_n" depart="433" /><vehicle id="veh_216" type="bus" route="s_w" depart="434" /><vehicle id="veh_217" type="bus" route="s_e" depart="434" /><vehicle id="veh_218" type="passenger" route="e_n" depart="437" /><vehicle id="veh_219" type="passenger" route="s_w" depart="441" /><vehicle id="veh_220" type="passenger" route="n_w" depart="442" /><vehicle id="veh_221" type="passenger" route="s_e" depart="444" /><vehicle id="veh_222" type="passenger" route="e_s" depart="446" /><vehicle id="veh_223" type="passenger" route="n_e" depart="447" /><vehicle id="veh_224" type="passenger" route="e_n" depart="451" /><vehicle id="veh_225" type="passenger" route="w_s" depart="451" /><vehicle id="veh_226" type="passenger" route="e_n" depart="455" /><vehicle id="veh_227" type="passenger" route="s_e" depart="454" /><vehicle id="veh_228" type="passenger" route="s_e" depart="457" /><vehicle id="veh_229" type="passenger" route="e_n" depart="460" /><vehicle id="veh_230" type="emergency" route="e_w" depart="462" /><vehicle id="veh_231" type="passenger" route="s_w" depart="464" /><vehicle id="veh_232" type="passenger" route="s_e" depart="466" /><vehicle id="veh_233" type="passenger" route="w_s" depart="466" /><vehicle id="veh_234" type="passenger" route="w_s" depart="468" /><vehicle id="veh_235" type="passenger" route="s_n" depart="471" /><vehicle id="veh_236" type="passenger" route="s_e" depart="475" /><vehicle id="veh_237" type="bus" route="n_e" depart="476" /><vehicle id="veh_238" type="passenger" route="s_n" depart="478" /><vehicle id="veh_239" type="passenger" route="n_s" depart="480" /><vehicle id="veh_240" type="passenger" route="s_e" depart="481" /><vehicle id="veh_241" type="passenger" route="e_s" depart="482" /><vehicle id="veh_242" type="bus" route="w_n" depart="485" /><vehicle id="veh_243" type="bus" route="n_e" depart="489" /><vehicle id="veh_244" type="passenger" route="e_n" depart="490" /><vehicle id="veh_245" type="truck" route="n_w" depart="492" /><vehicle id="veh_246" type="passenger" route="e_n" depart="494" /><vehicle id="veh_247" type="passenger" route="e_w" depart="494" /><vehicle id="veh_248" type="passenger" route="n_w" depart="496" /><vehicle id="veh_249" type="emergency" route="n_e" depart="500" /><vehicle id="veh_250" type="passenger" route="e_s" depart="500" /><vehicle id="veh_251" type="passenger" route="e_s" depart="503" /><vehicle id="veh_252" type="bus" route="s_e" depart="507" /><vehicle id="veh_253" type="passenger" route="s_e" depart="509" /><vehicle id="veh_254" type="truck" route="w_e" depart="508" /><vehicle id="veh_255" type="passenger" route="s_n" depart="510" /><vehicle id="veh_256" type="passenger" route="w_n" depart="514" /><vehicle id="veh_257" type="passenger" route="n_w" depart="515" /><vehicle id="veh_258" type="passenger" route="n_s" depart="517" /><vehicle id="veh_259" type="passenger" route="s_e" depart="521" /><vehicle id="veh_260" type="passenger" route="w_s" depart="522" /><vehicle id="veh_261" type="passenger" route="n_e" depart="525" /><vehicle id="veh_262" type="passenger" route="w_n" depart="526" /><vehicle id="veh_263" type="passenger" route="e_w" depart="527" /><vehicle id="veh_264" type="passenger" route="w_n" depart="529" /><vehicle id="veh_265" type="passenger" route="n_w" depart="532" /><vehicle id="veh_266" type="passenger" route="s_e" depart="533" /><vehicle id="veh_267" type="passenger" route="e_n" depart="536" /><vehicle id="veh_268" type="passenger" route="w_s" depart="538" /><vehicle id="veh_269" type="passenger" route="e_s" depart="540" /><vehicle id="veh_270" type="passenger" route="n_e" depart="543" /><vehicle id="veh_271" type="passenger" route="w_s" depart="545" /><vehicle id="veh_272" type="passenger" route="n_s" depart="546" /><vehicle id="veh_273" type="bus" route="w_n" depart="546" /><vehicle id="veh_274" type="passenger" route="n_w" depart="548" /><vehicle id="veh_275" type="passenger" route="s_e" depart="553" /><vehicle id="veh_276" type="bus" route="w_n" depart="555" /><vehicle id="veh_277" type="passenger" route="e_n" depart="554" /><vehicle id="veh_278" type="passenger" route="s_w" depart="558" /><vehicle id="veh_279" type="passenger" route="s_w" depart="559" /><vehicle id="veh_280" type="passenger" route="s_e" depart="563" /><vehicle id="veh_281" type="passenger" route="e_s" depart="565" /><vehicle id="veh_282" type="passenger" route="s_w" depart="564" /><vehicle id="veh_283" type="bus" route="e_w" depart="566" /><vehicle id="veh_284" type="bus" route="w_n" depart="568" /><vehicle id="veh_285" type="passenger" route="e_w" depart="573" /><vehicle id="veh_286" type="passenger" route="w_e" depart="574" /><vehicle id="veh_287" type="passenger" route="n_s" depart="577" /><vehicle id="veh_288" type="passenger" route="s_e" depart="577" /><vehicle id="veh_289" type="passenger" route="n_e" depart="581" /><vehicle id="veh_290" type="passenger" route="w_s" depart="581" /><vehicle id="veh_291" type="passenger" route="e_s" depart="582" /><vehicle id="veh_292" type="passenger" route="n_e" depart="585" /><vehicle id="veh_293" type="bus" route="w_n" depart="586" /><vehicle id="veh_294" type="passenger" route="w_s" depart="591" /><vehicle id="veh_295" type="bus" route="e_w" depart="592" /><vehicle id="veh_296" type="passenger" route="s_n" depart="595" /><vehicle id="veh_297" type="passenger" route="e_w" depart="595" /><vehicle id="veh_298" type="passenger" route="n_e" depart="597" /><vehicle id="veh_299" type="truck" route="s_w" depart="601" /><vehicle id="veh_300" type="passenger" route="n_s" depart="602" /><vehicle id="veh_301" type="passenger" route="w_e" depart="604" /><vehicle id="veh_302" type="passenger" route="n_w" depart="607" /><vehicle id="veh_303" type="passenger" route="s_w" depart="609" /><vehicle id="veh_304" type="truck" route="e_n" depart="611" /><vehicle id="veh_305" type="passenger" route="w_s" depart="611" /><vehicle id="veh_306" type="bus" route="s_n" depart="615" /><vehicle id="veh_307" type="passenger" route="n_s" depart="617" /><vehicle id="veh_308" type="truck" route="w_s" depart="619" /><vehicle id="veh_309" type="emergency" route="e_w" depart="621" /><vehicle id="veh_310" type="truck" route="e_n" depart="621" /><vehicle id="veh_311" type="truck" route="e_s" depart="623" /><vehicle id="veh_312" type="bus" route="n_e" depart="626" /><vehicle id="veh_313" type="passenger" route="n_e" depart="629" /><vehicle id="veh_314" type="passenger" route="n_s" depart="631" /><vehicle id="veh_315" type="truck" route="w_n" depart="633" /><vehicle id="veh_316" type="passenger" route="e_n" depart="632" /><vehicle id="veh_317" type="passenger" route="s_w" depart="636" /><vehicle id="veh_318" type="passenger" route="w_n" depart="639" /><vehicle id="veh_319" type="bus" route="w_n" depart="640" /><vehicle id="veh_320" type="passenger" route="s_w" depart="643" /><vehicle id="veh_321" type="passenger" route="e_s" depart="645" /><vehicle id="veh_322" type="passenger" route="s_n" depart="644" /><vehicle id="veh_323" type="passenger" route="s_n" depart="648" /><vehicle id="veh_324" type="passenger" route="n_e" depart="651" /><vehicle id="veh_325" type="passenger" route="e_n" depart="650" /><vehicle id="veh_326" type="passenger" route="n_s" depart="654" /><vehicle id="veh_327" type="passenger" route="s_e" depart="654" /><vehicle id="veh_328" type="passenger" route="n_w" depart="659" /><vehicle id="veh_329" type="passenger" route="w_e" depart="661" /><vehicle id="veh_330" type="passenger" route="n_w" depart="661" /><vehicle id="veh_331" type="passenger" route="w_e" depart="665" /><vehicle id="veh_332" type="passenger" route="w_e" depart="667" /><vehicle id="veh_333" type="passenger" route="w_n" depart="669" /><vehicle id="veh_334" type="passenger" route="w_n" depart="670" /><vehicle id="veh_335" type="passenger" route="s_e" depart="673" /><vehicle id="veh_336" type="passenger" route="n_e" depart="673" /><vehicle id="veh_337" type="passenger" route="w_e" depart="676" /><vehicle id="veh_338" type="passenger" route="w_s" depart="679" /><vehicle id="veh_339" type="emergency" route="s_n" depart="680" /><vehicle id="veh_340" type="passenger" route="n_e" depart="683" /><vehicle id="veh_341" type="passenger" route="w_e" depart="684" /><vehicle id="veh_342" type="truck" route="n_s" depart="686" /><vehicle id="veh_343" type="passenger" route="s_e" depart="689" /><vehicle id="veh_344" type="passenger" route="w_e" depart="688" /><vehicle id="veh_345" type="passenger" route="s_n" depart="692" /><vehicle id="veh_346" type="passenger" route="s_n" depart="694" /><vehicle id="veh_347" type="passenger" route="w_n" depart="696" /><vehicle id="veh_348" type="passenger" route="w_n" depart="697" /><vehicle id="veh_349" type="passenger" route="s_e" depart="698" /><vehicle id="veh_350" type="passenger" route="w_e" depart="700" /><vehicle id="veh_351" type="truck" route="n_e" depart="703" /><vehicle id="veh_352" type="passenger" route="w_s" depart="706" /><vehicle id="veh_353" type="passenger" route="n_w" depart="707" /><vehicle id="veh_354" type="passenger" route="e_s" depart="710" /><vehicle id="veh_355" type="passenger" route="n_w" depart="712" /><vehicle id="veh_356" type="passenger" route="s_e" depart="715" /><vehicle id="veh_357" type="passenger" route="n_e" depart="716" /><vehicle id="veh_358" type="passenger" route="n_w" depart="716" /><vehicle id="veh_359" type="passenger" route="w_n" depart="719" /><vehicle id="veh_360" type="passenger" route="e_s" depart="723" /><vehicle id="veh_361" type="passenger" route="n_s" depart="725" /><vehicle id="veh_362" type="passenger" route="e_n" depart="724" /><vehicle id="veh_363" type="passenger" route="w_e" depart="728" /><vehicle id="veh_364" type="passenger" route="n_e" depart="730" /><vehicle id="veh_365" type="passenger" route="n_s" depart="733" /><vehicle id="veh_366" type="passenger" route="w_e" depart="734" /><vehicle id="veh_367" type="bus" route="w_n" depart="734" /><vehicle id="veh_368" type="passenger" route="w_n" depart="738" /><vehicle id="veh_369" type="truck" route="n_s" depart="739" /><vehicle id="veh_370" type="passenger" route="e_n" depart="742" /><vehicle id="veh_371" type="passenger" route="e_s" depart="743" /><vehicle id="veh_372" type="passenger" route="s_w" depart="747" /><vehicle id="veh_373" type="passenger" route="w_e" depart="749" /><vehicle id="veh_374" type="passenger" route="e_w" depart="749" /><vehicle id="veh_375" type="passenger" route="w_e" depart="753" /><vehicle id="veh_376" type="passenger" route="n_s" depart="754" /><vehicle id="veh_377" type="passenger" route="e_n" depart="755" /><vehicle id="veh_378" type="passenger" route="s_w" depart="757" /><vehicle id="veh_379" type="truck" route="e_s" depart="760" /><vehicle id="veh_380" type="passenger" route="n_s" depart="762" /><vehicle id="veh_381" type="truck" route="n_e" depart="763" /><vehicle id="veh_382" type="passenger" route="n_e" depart="767" /><vehicle id="veh_383" type="passenger" route="n_s" depart="766" /><vehicle id="veh_384" type="passenger" route="n_w" depart="769" /><vehicle id="veh_385" type="bus" route="n_e" depart="771" /><vehicle id="veh_386" type="passenger" route="w_e" depart="773" /><vehicle id="veh_387" type="passenger" route="s_w" depart="775" /><vehicle id="veh_388" type="bus" route="s_e" depart="776" /><vehicle id="veh_389" type="passenger" route="n_w" depart="779" /><vehicle id="veh_390" type="passenger" route="n_e" depart="781" /><vehicle id="veh_391" type="passenger" route="n_w" depart="782" /><vehicle id="veh_392" type="passenger" route="w_e" depart="785" /><vehicle id="veh_393" type="passenger" route="s_e" depart="787" /><vehicle id="veh_394" type="passenger" route="e_s" depart="791" /><vehicle id="veh_395" type="passenger" route="e_n" depart="790" /><vehicle id="veh_396" type="passenger" route="e_s" depart="794" /><vehicle id="veh_397" type="passenger" route="e_s" depart="797" /><vehicle id="veh_398" type="passenger" route="w_s" depart="796" /><vehicle id="veh_399" type="passenger" route="e_n" depart="800" /><vehicle id="veh_400" type="emergency" route="n_s" depart="800" /><vehicle id="veh_401" type="passenger" route="e_w" depart="805" /><vehicle id="veh_402" type="truck" route="w_s" depart="807" /><vehicle id="veh_403" type="passenger" route="n_e" depart="806" /><vehicle id="veh_404" type="passenger" route="n_e" depart="809" /><vehicle id="veh_405" type="emergency" route="e_w" depart="812" /><vehicle id="veh_406" type="passenger" route="e_n" depart="814" /><vehicle id="veh_407" type="passenger" route="n_e" depart="817" /><vehicle id="veh_408" type="passenger" route="w_n" depart="816" /><vehicle id="veh_409" type="passenger" route="e_w" depart="819" /><vehicle id="veh_410" type="passenger" route="e_w" depart="821" /><vehicle id="veh_411" type="passenger" route="e_w" depart="825" /><vehicle id="veh_412" type="passenger" route="s_w" depart="824" /><vehicle id="veh_413" type="truck" route="s_w" depart="828" /><vehicle id="veh_414" type="passenger" route="n_e" depart="831" /><vehicle id="veh_415" type="passenger" route="n_e" depart="830" /><vehicle id="veh_416" type="passenger" route="n_w" depart="834" /><vehicle id="veh_417" type="passenger" route="w_n" depart="836" /><vehicle id="veh_418" type="truck" route="w_n" depart="838" /><vehicle id="veh_419" type="passenger" route="w_s" depart="841" /><vehicle id="veh_420" type="passenger" route="w_e" depart="842" /><vehicle id="veh_421" type="passenger" route="w_e" depart="842" /><vehicle id="veh_422" type="passenger" route="w_n" depart="845" /><vehicle id="veh_423" type="bus" route="s_w" depart="846" /><vehicle id="veh_424" type="passenger" route="n_e" depart="850" /><vehicle id="veh_425" type="bus" route="e_w" depart="851" /><vehicle id="veh_426" type="truck" route="w_e" depart="852" /><vehicle id="veh_427" type="passenger" route="n_s" depart="856" /><vehicle id="veh_428" type="passenger" route="s_w" depart="858" /><vehicle id="veh_429" type="passenger" route="n_w" depart="859" /><vehicle id="veh_430" type="passenger" route="n_e" depart="863" /><vehicle id="veh_431" type="passenger" route="n_e" depart="862" /><vehicle id="veh_432" type="passenger" route="e_w" depart="865" /><vehicle id="veh_433" type="passenger" route="n_w" depart="868" /><vehicle id="veh_434" type="passenger" route="w_e" depart="870" /><vehicle id="veh_435" type="passenger" route="n_w" depart="870" /><vehicle id="veh_436" type="passenger" route="w_n" depart="872" /><vehicle id="veh_437" type="passenger" route="w_n" depart="877" /><vehicle id="veh_438" type="passenger" route="e_w" depart="879" /><vehicle id="veh_439" type="passenger" route="s_w" depart="878" /><vehicle id="veh_440" type="passenger" route="w_n" depart="882" /><vehicle id="veh_441" type="passenger" route="e_s" depart="885" /><vehicle id="veh_442" type="passenger" route="s_n" depart="884" /><vehicle id="veh_443" type="passenger" route="n_s" depart="886" /><vehicle id="veh_444" type="passenger" route="n_w" depart="889" /><vehicle id="veh_445" type="passenger" route="s_w" depart="892" /><vehicle id="veh_446" type="passenger" route="w_s" depart="895" /><vehicle id="veh_447" type="passenger" route="e_w" depart="895" /><vehicle id="veh_448" type="passe