<?xml version="1.0" encoding="UTF-8"?>

<!-- generated on 2025-09-24 03:30:28.783085 by randomTrips.py v1_24_0+0000-b72eb3fabc8
<configuration>
    <net-file value="sumo_files/intersection.net.xml"/>
    <route-file value="sumo_files/intersection.rou.xml"/>
    <end value="50.0"/>
    <period value="8.0"/>
</configuration>
-->

<routes xmlns:xsi="http://www.w3.org/2001/XMLSchema-instance" xsi:noNamespaceSchemaLocation="http://sumo.dlr.de/xsd/routes_file.xsd">
    <trip id="0" depart="0.00" from="edge_south_in" to="edge_east_out"/>
    <trip id="1" depart="8.00" from="edge_north_in" to="edge_east_out"/>
    <trip id="2" depart="16.00" from="edge_south_in" to="edge_south_out"/>
    <trip id="3" depart="24.00" from="edge_west_in" to="edge_east_out"/>
    <trip id="4" depart="32.00" from="edge_north_in" to="edge_east_out"/>
    <trip id="5" depart="40.00" from="edge_east_in" to="edge_south_out"/>
    <trip id="6" depart="48.00" from="edge_east_in" to="edge_east_out"/>
</routes>
