<?xml version="1.0" encoding="UTF-8"?>

<!-- generated on 2025-09-24 23:59:04.231471 by randomTrips.py v1_24_0+0000-b72eb3fabc8
<configuration>
    <net-file value="sumo_files/intersection.net.xml"/>
    <route-file value="sumo_files/routes\intersection_episode_0.rou.xml"/>
    <end value="200.0"/>
    <period value="8.0"/>
</configuration>
-->

<routes xmlns:xsi="http://www.w3.org/2001/XMLSchema-instance" xsi:noNamespaceSchemaLocation="http://sumo.dlr.de/xsd/routes_file.xsd">
    <trip id="0" depart="0.00" from="edge_south_in" to="edge_east_out"/>
    <trip id="1" depart="8.00" from="edge_north_in" to="edge_east_out"/>
    <trip id="2" depart="16.00" from="edge_south_in" to="edge_south_out"/>
    <trip id="3" depart="24.00" from="edge_west_in" to="edge_east_out"/>
    <trip id="4" depart="32.00" from="edge_north_in" to="edge_east_out"/>
    <trip id="5" depart="40.00" from="edge_east_in" to="edge_south_out"/>
    <trip id="6" depart="48.00" from="edge_east_in" to="edge_east_out"/>
    <trip id="7" depart="56.00" from="edge_south_in" to="edge_south_out"/>
    <trip id="8" depart="64.00" from="edge_east_in" to="edge_south_out"/>
    <trip id="9" depart="72.00" from="edge_west_in" to="edge_east_out"/>
    <trip id="10" depart="80.00" from="edge_west_in" to="edge_south_out"/>
    <trip id="11" depart="88.00" from="edge_north_in" to="edge_east_out"/>
    <trip id="12" depart="96.00" from="edge_west_in" to="edge_north_out"/>
    <trip id="13" depart="104.00" from="edge_east_in" to="edge_east_out"/>
    <trip id="14" depart="112.00" from="edge_west_in" to="edge_south_out"/>
    <trip id="15" depart="120.00" from="edge_west_in" to="edge_south_out"/>
    <trip id="16" depart="128.00" from="edge_south_in" to="edge_west_out"/>
    <trip id="17" depart="136.00" from="edge_north_in" to="edge_south_out"/>
    <trip id="18" depart="144.00" from="edge_west_in" to="edge_south_out"/>
    <trip id="19" depart="152.00" from="edge_west_in" to="edge_south_out"/>
    <trip id="20" depart="160.00" from="edge_south_in" to="edge_east_out"/>
    <trip id="21" depart="168.00" from="edge_east_in" to="edge_north_out"/>
    <trip id="22" depart="176.00" from="edge_east_in" to="edge_east_out"/>
    <trip id="23" depart="184.00" from="edge_east_in" to="edge_north_out"/>
    <trip id="24" depart="192.00" from="edge_south_in" to="edge_north_out"/>
</routes>
