<?xml version="1.0" encoding="UTF-8"?>

<!-- generated on 2025-09-24 03:30:28.960273 by randomTrips.py v1_24_0+0000-b72eb3fabc8
<configuration>
    <net-file value="sumo_files/intersection.net.xml"/>
    <route-file value="sumo_files/intersection.rou.xml"/>
    <end value="50.0"/>
    <period value="8.0"/>
</configuration>
-->

<!-- generated on 2025-09-24 03:30:28 by Eclipse SUMO duarouter Version 1.24.0
<duarouterConfiguration xmlns:xsi="http://www.w3.org/2001/XMLSchema-instance" xsi:noNamespaceSchemaLocation="http://sumo.dlr.de/xsd/duarouterConfiguration.xsd">

    <input>
        <net-file value="sumo_files/intersection.net.xml"/>
        <route-files value="trips.trips.xml"/>
    </input>

    <output>
        <output-file value="sumo_files/intersection.rou.xml"/>
        <alternatives-output value="NUL"/>
    </output>

    <time>
        <begin value="0"/>
        <end value="50.0"/>
    </time>

    <report>
        <no-warnings value="true"/>
        <ignore-errors value="true"/>
        <no-step-log value="true"/>
    </report>

</duarouterConfiguration>
-->

<routes xmlns:xsi="http://www.w3.org/2001/XMLSchema-instance" xsi:noNamespaceSchemaLocation="http://sumo.dlr.de/xsd/routes_file.xsd">
    <vehicle id="0" depart="0.00">
        <route edges="edge_south_in edge_east_out"/>
    </vehicle>
    <vehicle id="1" depart="8.00">
        <route edges="edge_north_in edge_east_out"/>
    </vehicle>
    <vehicle id="2" depart="16.00">
        <route edges="edge_south_in edge_south_out"/>
    </vehicle>
    <vehicle id="3" depart="24.00">
        <route edges="edge_west_in edge_east_out"/>
    </vehicle>
    <vehicle id="4" depart="32.00">
        <route edges="edge_north_in edge_east_out"/>
    </vehicle>
    <vehicle id="5" depart="40.00">
        <route edges="edge_east_in edge_south_out"/>
    </vehicle>
    <vehicle id="6" depart="48.00">
        <route edges="edge_east_in edge_east_out"/>
    </vehicle>
</routes>
