<?xml version="1.0" encoding="UTF-8"?>

<!-- generated on 2025-09-22 00:09:56 by Eclipse SUMO netconvert Version 1.24.0
<netconvertConfiguration xmlns:xsi="http://www.w3.org/2001/XMLSchema-instance" xsi:noNamespaceSchemaLocation="http://sumo.dlr.de/xsd/netconvertConfiguration.xsd">

    <input>
        <node-files value="sumo_files/intersection.nod.xml"/>
        <edge-files value="sumo_files/intersection.edg.xml"/>
    </input>

    <output>
        <output-file value="sumo_files/intersection.net.xml"/>
    </output>

    <processing>
        <lefthand value="true"/>
    </processing>

</netconvertConfiguration>
-->

<net version="1.20" junctionCornerDetail="5" lefthand="true" limitTurnSpeed="5.50" xmlns:xsi="http://www.w3.org/2001/XMLSchema-instance" xsi:noNamespaceSchemaLocation="http://sumo.dlr.de/xsd/net_file.xsd">

    <location netOffset="250.00,250.00" convBoundary="0.00,-0.00,500.00,500.00" origBoundary="-250.00,-250.00,250.00,250.00" projParameter="!"/>

    <edge id=":E1_0" function="internal">
        <lane id=":E1_0_0" index="0" speed="3.65" length="4.67" shape="500.00,251.60 501.20,250.80 501.60,250.00 501.20,249.20 500.00,248.40"/>
    </edge>
    <edge id=":J0_0" function="internal">
        <lane id=":J0_0_0" index="0" speed="6.51" length="9.03" shape="245.20,239.60 244.85,242.05 243.80,243.80 242.05,244.85 239.60,245.20"/>
    </edge>
    <edge id=":J0_1" function="internal">
        <lane id=":J0_1_0" index="0" speed="13.89" length="20.80" shape="245.20,239.60 245.20,260.40"/>
        <lane id=":J0_1_1" index="1" speed="13.89" length="20.80" shape="248.40,239.60 248.40,260.40"/>
    </edge>
    <edge id=":J0_3" function="internal">
        <lane id=":J0_3_0" index="0" speed="9.26" length="5.01" shape="248.40,239.60 249.11,244.56"/>
    </edge>
    <edge id=":J0_4" function="internal">
        <lane id=":J0_4_0" index="0" speed="3.65" length="1.44" shape="248.40,239.60 249.20,240.80"/>
    </edge>
    <edge id=":J0_20" function="internal">
        <lane id=":J0_20_0" index="0" speed="9.26" length="14.34" shape="249.11,244.56 249.15,244.85 251.40,248.60 255.15,250.85 260.40,251.60"/>
    </edge>
    <edge id=":J0_21" function="internal">
        <lane id=":J0_21_0" index="0" speed="3.65" length="3.23" shape="249.20,240.80 250.00,241.20 250.80,240.80 251.60,239.60"/>
    </edge>
    <edge id=":J0_5" function="internal">
        <lane id=":J0_5_0" index="0" speed="6.51" length="9.03" shape="260.40,245.20 257.95,244.85 256.20,243.80 255.15,242.05 254.80,239.60"/>
    </edge>
    <edge id=":J0_6" function="internal">
        <lane id=":J0_6_0" index="0" speed="13.89" length="20.80" shape="260.40,245.20 239.60,245.20"/>
        <lane id=":J0_6_1" index="1" speed="13.89" length="20.80" shape="260.40,248.40 239.60,248.40"/>
    </edge>
    <edge id=":J0_8" function="internal">
        <lane id=":J0_8_0" index="0" speed="9.26" length="5.01" shape="260.40,248.40 255.44,249.11"/>
    </edge>
    <edge id=":J0_9" function="internal">
        <lane id=":J0_9_0" index="0" speed="3.65" length="1.44" shape="260.40,248.40 259.20,249.20"/>
    </edge>
    <edge id=":J0_22" function="internal">
        <lane id=":J0_22_0" index="0" speed="9.26" length="14.34" shape="255.44,249.11 255.15,249.15 251.40,251.40 249.15,255.15 248.40,260.40"/>
    </edge>
    <edge id=":J0_23" function="internal">
        <lane id=":J0_23_0" index="0" speed="3.65" length="3.23" shape="259.20,249.20 258.80,250.00 259.20,250.80 260.40,251.60"/>
    </edge>
    <edge id=":J0_10" function="internal">
        <lane id=":J0_10_0" index="0" speed="6.51" length="9.03" shape="254.80,260.40 255.15,257.95 256.20,256.20 257.95,255.15 260.40,254.80"/>
    </edge>
    <edge id=":J0_11" function="internal">
        <lane id=":J0_11_0" index="0" speed="13.89" length="20.80" shape="254.80,260.40 254.80,239.60"/>
        <lane id=":J0_11_1" index="1" speed="13.89" length="20.80" shape="251.60,260.40 251.60,239.60"/>
    </edge>
    <edge id=":J0_13" function="internal">
        <lane id=":J0_13_0" index="0" speed="9.26" length="5.01" shape="251.60,260.40 250.89,255.44"/>
    </edge>
    <edge id=":J0_14" function="internal">
        <lane id=":J0_14_0" index="0" speed="3.65" length="1.44" shape="251.60,260.40 250.80,259.20"/>
    </edge>
    <edge id=":J0_24" function="internal">
        <lane id=":J0_24_0" index="0" speed="9.26" length="14.34" shape="250.89,255.44 250.85,255.15 248.60,251.40 244.85,249.15 239.60,248.40"/>
    </edge>
    <edge id=":J0_25" function="internal">
        <lane id=":J0_25_0" index="0" speed="3.65" length="3.23" shape="250.80,259.20 250.00,258.80 249.20,259.20 248.40,260.40"/>
    </edge>
    <edge id=":J0_15" function="internal">
        <lane id=":J0_15_0" index="0" speed="6.51" length="9.03" shape="239.60,254.80 242.05,255.15 243.80,256.20 244.85,257.95 245.20,260.40"/>
    </edge>
    <edge id=":J0_16" function="internal">
        <lane id=":J0_16_0" index="0" speed="13.89" length="20.80" shape="239.60,254.80 260.40,254.80"/>
        <lane id=":J0_16_1" index="1" speed="13.89" length="20.80" shape="239.60,251.60 260.40,251.60"/>
    </edge>
    <edge id=":J0_18" function="internal">
        <lane id=":J0_18_0" index="0" speed="9.26" length="5.01" shape="239.60,251.60 244.56,250.89"/>
    </edge>
    <edge id=":J0_19" function="internal">
        <lane id=":J0_19_0" index="0" speed="3.65" length="1.44" shape="239.60,251.60 240.80,250.80"/>
    </edge>
    <edge id=":J0_26" function="internal">
        <lane id=":J0_26_0" index="0" speed="9.26" length="14.34" shape="244.56,250.89 244.85,250.85 248.60,248.60 250.85,244.85 251.60,239.60"/>
    </edge>
    <edge id=":J0_27" function="internal">
        <lane id=":J0_27_0" index="0" speed="3.65" length="3.23" shape="240.80,250.80 241.20,250.00 240.80,249.20 239.60,248.40"/>
    </edge>
    <edge id=":N1_0" function="internal">
        <lane id=":N1_0_0" index="0" speed="3.65" length="4.67" shape="248.40,500.00 249.20,501.20 250.00,501.60 250.80,501.20 251.60,500.00"/>
    </edge>
    <edge id=":S1_0" function="internal">
        <lane id=":S1_0_0" index="0" speed="3.65" length="4.67" shape="251.60,-0.00 250.80,-1.20 250.00,-1.60 249.20,-1.20 248.40,-0.00"/>
    </edge>
    <edge id=":W1_0" function="internal">
        <lane id=":W1_0_0" index="0" speed="3.65" length="4.67" shape="0.00,248.40 -1.20,249.20 -1.60,250.00 -1.20,250.80 0.00,251.60"/>
    </edge>

    <edge id="edge_east_in" from="E1" to="J0" priority="78">
        <lane id="edge_east_in_0" index="0" speed="13.89" length="239.60" shape="500.00,245.20 260.40,245.20"/>
        <lane id="edge_east_in_1" index="1" speed="13.89" length="239.60" shape="500.00,248.40 260.40,248.40"/>
    </edge>
    <edge id="edge_east_out" from="J0" to="E1" priority="78">
        <lane id="edge_east_out_0" index="0" speed="13.89" length="239.60" shape="260.40,254.80 500.00,254.80"/>
        <lane id="edge_east_out_1" index="1" speed="13.89" length="239.60" shape="260.40,251.60 500.00,251.60"/>
    </edge>
    <edge id="edge_north_in" from="N1" to="J0" priority="78">
        <lane id="edge_north_in_0" index="0" speed="13.89" length="239.60" shape="254.80,500.00 254.80,260.40"/>
        <lane id="edge_north_in_1" index="1" speed="13.89" length="239.60" shape="251.60,500.00 251.60,260.40"/>
    </edge>
    <edge id="edge_north_out" from="J0" to="N1" priority="78">
        <lane id="edge_north_out_0" index="0" speed="13.89" length="239.60" shape="245.20,260.40 245.20,500.00"/>
        <lane id="edge_north_out_1" index="1" speed="13.89" length="239.60" shape="248.40,260.40 248.40,500.00"/>
    </edge>
    <edge id="edge_south_in" from="S1" to="J0" priority="78">
        <lane id="edge_south_in_0" index="0" speed="13.89" length="239.60" shape="245.20,-0.00 245.20,239.60"/>
        <lane id="edge_south_in_1" index="1" speed="13.89" length="239.60" shape="248.40,-0.00 248.40,239.60"/>
    </edge>
    <edge id="edge_south_out" from="J0" to="S1" priority="78">
        <lane id="edge_south_out_0" index="0" speed="13.89" length="239.60" shape="254.80,239.60 254.80,-0.00"/>
        <lane id="edge_south_out_1" index="1" speed="13.89" length="239.60" shape="251.60,239.60 251.60,-0.00"/>
    </edge>
    <edge id="edge_west_in" from="W1" to="J0" priority="78">
        <lane id="edge_west_in_0" index="0" speed="13.89" length="239.60" shape="0.00,254.80 239.60,254.80"/>
        <lane id="edge_west_in_1" index="1" speed="13.89" length="239.60" shape="0.00,251.60 239.60,251.60"/>
    </edge>
    <edge id="edge_west_out" from="J0" to="W1" priority="78">
        <lane id="edge_west_out_0" index="0" speed="13.89" length="239.60" shape="239.60,245.20 0.00,245.20"/>
        <lane id="edge_west_out_1" index="1" speed="13.89" length="239.60" shape="239.60,248.40 0.00,248.40"/>
    </edge>

    <tlLogic id="J0" type="static" programID="0" offset="0">
        <phase duration="42" state="GGGggrrrrrGGGggrrrrr"/>
        <phase duration="3"  state="yyyyyrrrrryyyyyrrrrr"/>
        <phase duration="42" state="rrrrrGGGggrrrrrGGGgg"/>
        <phase duration="3"  state="rrrrryyyyyrrrrryyyyy"/>
    </tlLogic>

    <junction id="E1" type="priority" x="500.00" y="250.00" incLanes="edge_east_out_0 edge_east_out_1" intLanes=":E1_0_0" shape="500.00,250.00 500.00,256.40 500.00,250.00">
        <request index="0" response="0" foes="0" cont="0"/>
    </junction>
    <junction id="J0" type="traffic_light" x="250.00" y="250.00" incLanes="edge_south_in_0 edge_south_in_1 edge_east_in_0 edge_east_in_1 edge_north_in_0 edge_north_in_1 edge_west_in_0 edge_west_in_1" intLanes=":J0_0_0 :J0_1_0 :J0_1_1 :J0_20_0 :J0_21_0 :J0_5_0 :J0_6_0 :J0_6_1 :J0_22_0 :J0_23_0 :J0_10_0 :J0_11_0 :J0_11_1 :J0_24_0 :J0_25_0 :J0_15_0 :J0_16_0 :J0_16_1 :J0_26_0 :J0_27_0" shape="243.60,239.60 256.40,239.60 256.84,241.82 257.40,242.60 258.18,243.16 259.18,243.49 260.40,243.60 260.40,256.40 258.18,256.84 257.40,257.40 256.84,258.18 256.51,259.18 256.40,260.40 243.60,260.40 243.16,258.18 242.60,257.40 241.82,256.84 240.82,256.51 239.60,256.40 239.60,243.60 241.82,243.16 242.60,242.60 243.16,241.82 243.49,240.82">
        <request index="0"  response="00000000000000000000" foes="00000000000011000000" cont="0"/>
        <request index="1"  response="01000000000100000000" foes="01111110000111000000" cont="0"/>
        <request index="2"  response="01000000000100000000" foes="01111110000111000000" cont="0"/>
        <request index="3"  response="01000001100100000000" foes="01110001101111000000" cont="1"/>
        <request index="4"  response="01000001100000000000" foes="01000001100000000000" cont="1"/>
        <request index="5"  response="00000001100000000000" foes="00000001100000000000" cont="0"/>
        <request index="6"  response="00000011100000001111" foes="11000011100000001111" cont="0"/>
        <request index="7"  response="00000011100000001111" foes="11000011100000001111" cont="0"/>
        <request index="8"  response="00110011100000001110" foes="00110111100000001110" cont="1"/>
        <request index="9"  response="00110000000000001000" foes="00110000000000001000" cont="1"/>
        <request index="10" response="00000000000000000000" foes="00110000000000000000" cont="0"/>
        <request index="11" response="01000000000100000000" foes="01110000000111111000" cont="0"/>
        <request index="12" response="01000000000100000000" foes="01110000000111111000" cont="0"/>
        <request index="13" response="01000000000100000110" foes="11110000000111000110" cont="1"/>
        <request index="14" response="00000000000100000110" foes="00000000000100000110" cont="1"/>
        <request index="15" response="00000000000000000110" foes="00000000000000000110" cont="0"/>
        <request index="16" response="00000011110000001110" foes="00000011111100001110" cont="0"/>
        <request index="17" response="00000011110000001110" foes="00000011111100001110" cont="0"/>
        <request index="18" response="00000011100011001110" foes="00000011100011011110" cont="1"/>
        <request index="19" response="00000010000011000000" foes="00000010000011000000" cont="1"/>
    </junction>
    <junction id="N1" type="priority" x="250.00" y="500.00" incLanes="edge_north_out_0 edge_north_out_1" intLanes=":N1_0_0" shape="250.00,500.00 243.60,500.00 250.00,500.00">
        <request index="0" response="0" foes="0" cont="0"/>
    </junction>
    <junction id="S1" type="priority" x="250.00" y="-0.00" incLanes="edge_south_out_0 edge_south_out_1" intLanes=":S1_0_0" shape="250.00,-0.00 256.40,-0.00 250.00,-0.00">
        <request index="0" response="0" foes="0" cont="0"/>
    </junction>
    <junction id="W1" type="priority" x="0.00" y="250.00" incLanes="edge_west_out_0 edge_west_out_1" intLanes=":W1_0_0" shape="0.00,250.00 0.00,243.60 0.00,250.00">
        <request index="0" response="0" foes="0" cont="0"/>
    </junction>

    <junction id=":J0_20_0" type="internal" x="249.11" y="244.56" incLanes=":J0_3_0 edge_north_in_0 edge_north_in_1" intLanes=":J0_6_0 :J0_6_1 :J0_8_0 :J0_9_0 :J0_10_0 :J0_11_0 :J0_11_1 :J0_16_0 :J0_16_1 :J0_18_0"/>
    <junction id=":J0_21_0" type="internal" x="249.20" y="240.80" incLanes=":J0_4_0 edge_east_in_0 edge_north_in_0 edge_north_in_1 edge_west_in_1" intLanes=":J0_5_0 :J0_11_0 :J0_11_1 :J0_18_0"/>
    <junction id=":J0_22_0" type="internal" x="255.44" y="249.11" incLanes=":J0_8_0 edge_west_in_0 edge_west_in_1" intLanes=":J0_1_0 :J0_1_1 :J0_3_0 :J0_11_0 :J0_11_1 :J0_13_0 :J0_14_0 :J0_15_0 :J0_16_0 :J0_16_1"/>
    <junction id=":J0_23_0" type="internal" x="259.20" y="249.20" incLanes=":J0_9_0 edge_north_in_0 edge_south_in_1 edge_west_in_0 edge_west_in_1" intLanes=":J0_3_0 :J0_10_0 :J0_16_0 :J0_16_1"/>
    <junction id=":J0_24_0" type="internal" x="250.89" y="255.44" incLanes=":J0_13_0 edge_south_in_0 edge_south_in_1" intLanes=":J0_0_0 :J0_1_0 :J0_1_1 :J0_6_0 :J0_6_1 :J0_8_0 :J0_16_0 :J0_16_1 :J0_18_0 :J0_19_0"/>
    <junction id=":J0_25_0" type="internal" x="250.80" y="259.20" incLanes=":J0_14_0 edge_east_in_1 edge_south_in_0 edge_south_in_1 edge_west_in_0" intLanes=":J0_1_0 :J0_1_1 :J0_8_0 :J0_15_0"/>
    <junction id=":J0_26_0" type="internal" x="244.56" y="250.89" incLanes=":J0_18_0 edge_east_in_0 edge_east_in_1" intLanes=":J0_1_0 :J0_1_1 :J0_3_0 :J0_4_0 :J0_5_0 :J0_6_0 :J0_6_1 :J0_11_0 :J0_11_1 :J0_13_0"/>
    <junction id=":J0_27_0" type="internal" x="240.80" y="250.80" incLanes=":J0_19_0 edge_east_in_0 edge_east_in_1 edge_north_in_1 edge_south_in_0" intLanes=":J0_0_0 :J0_6_0 :J0_6_1 :J0_13_0"/>

    <connection from="edge_east_in" to="edge_south_out" fromLane="0" toLane="0" via=":J0_5_0" tl="J0" linkIndex="5" dir="l" state="o"/>
    <connection from="edge_east_in" to="edge_west_out" fromLane="0" toLane="0" via=":J0_6_0" tl="J0" linkIndex="6" dir="s" state="o"/>
    <connection from="edge_east_in" to="edge_west_out" fromLane="1" toLane="1" via=":J0_6_1" tl="J0" linkIndex="7" dir="s" state="o"/>
    <connection from="edge_east_in" to="edge_north_out" fromLane="1" toLane="1" via=":J0_8_0" tl="J0" linkIndex="8" dir="r" state="o"/>
    <connection from="edge_east_in" to="edge_east_out" fromLane="1" toLane="1" via=":J0_9_0" tl="J0" linkIndex="9" dir="T" state="o"/>
    <connection from="edge_east_out" to="edge_east_in" fromLane="1" toLane="1" via=":E1_0_0" dir="T" state="M"/>
    <connection from="edge_north_in" to="edge_east_out" fromLane="0" toLane="0" via=":J0_10_0" tl="J0" linkIndex="10" dir="l" state="O"/>
    <connection from="edge_north_in" to="edge_south_out" fromLane="0" toLane="0" via=":J0_11_0" tl="J0" linkIndex="11" dir="s" state="O"/>
    <connection from="edge_north_in" to="edge_south_out" fromLane="1" toLane="1" via=":J0_11_1" tl="J0" linkIndex="12" dir="s" state="O"/>
    <connection from="edge_north_in" to="edge_west_out" fromLane="1" toLane="1" via=":J0_13_0" tl="J0" linkIndex="13" dir="r" state="o"/>
    <connection from="edge_north_in" to="edge_north_out" fromLane="1" toLane="1" via=":J0_14_0" tl="J0" linkIndex="14" dir="T" state="o"/>
    <connection from="edge_north_out" to="edge_north_in" fromLane="1" toLane="1" via=":N1_0_0" dir="T" state="M"/>
    <connection from="edge_south_in" to="edge_west_out" fromLane="0" toLane="0" via=":J0_0_0" tl="J0" linkIndex="0" dir="l" state="O"/>
    <connection from="edge_south_in" to="edge_north_out" fromLane="0" toLane="0" via=":J0_1_0" tl="J0" linkIndex="1" dir="s" state="O"/>
    <connection from="edge_south_in" to="edge_north_out" fromLane="1" toLane="1" via=":J0_1_1" tl="J0" linkIndex="2" dir="s" state="O"/>
    <connection from="edge_south_in" to="edge_east_out" fromLane="1" toLane="1" via=":J0_3_0" tl="J0" linkIndex="3" dir="r" state="o"/>
    <connection from="edge_south_in" to="edge_south_out" fromLane="1" toLane="1" via=":J0_4_0" tl="J0" linkIndex="4" dir="T" state="o"/>
    <connection from="edge_south_out" to="edge_south_in" fromLane="1" toLane="1" via=":S1_0_0" dir="T" state="M"/>
    <connection from="edge_west_in" to="edge_north_out" fromLane="0" toLane="0" via=":J0_15_0" tl="J0" linkIndex="15" dir="l" state="o"/>
    <connection from="edge_west_in" to="edge_east_out" fromLane="0" toLane="0" via=":J0_16_0" tl="J0" linkIndex="16" dir="s" state="o"/>
    <connection from="edge_west_in" to="edge_east_out" fromLane="1" toLane="1" via=":J0_16_1" tl="J0" linkIndex="17" dir="s" state="o"/>
    <connection from="edge_west_in" to="edge_south_out" fromLane="1" toLane="1" via=":J0_18_0" tl="J0" linkIndex="18" dir="r" state="o"/>
    <connection from="edge_west_in" to="edge_west_out" fromLane="1" toLane="1" via=":J0_19_0" tl="J0" linkIndex="19" dir="T" state="o"/>
    <connection from="edge_west_out" to="edge_west_in" fromLane="1" toLane="1" via=":W1_0_0" dir="T" state="M"/>

    <connection from=":E1_0" to="edge_east_in" fromLane="0" toLane="1" dir="T" state="M"/>
    <connection from=":J0_0" to="edge_west_out" fromLane="0" toLane="0" dir="l" state="M"/>
    <connection from=":J0_1" to="edge_north_out" fromLane="0" toLane="0" dir="s" state="M"/>
    <connection from=":J0_1" to="edge_north_out" fromLane="1" toLane="1" dir="s" state="M"/>
    <connection from=":J0_3" to="edge_east_out" fromLane="0" toLane="1" via=":J0_20_0" dir="r" state="m"/>
    <connection from=":J0_20" to="edge_east_out" fromLane="0" toLane="1" dir="r" state="M"/>
    <connection from=":J0_4" to="edge_south_out" fromLane="0" toLane="1" via=":J0_21_0" dir="T" state="m"/>
    <connection from=":J0_21" to="edge_south_out" fromLane="0" toLane="1" dir="T" state="M"/>
    <connection from=":J0_5" to="edge_south_out" fromLane="0" toLane="0" dir="l" state="M"/>
    <connection from=":J0_6" to="edge_west_out" fromLane="0" toLane="0" dir="s" state="M"/>
    <connection from=":J0_6" to="edge_west_out" fromLane="1" toLane="1" dir="s" state="M"/>
    <connection from=":J0_8" to="edge_north_out" fromLane="0" toLane="1" via=":J0_22_0" dir="r" state="m"/>
    <connection from=":J0_22" to="edge_north_out" fromLane="0" toLane="1" dir="r" state="M"/>
    <connection from=":J0_9" to="edge_east_out" fromLane="0" toLane="1" via=":J0_23_0" dir="T" state="m"/>
    <connection from=":J0_23" to="edge_east_out" fromLane="0" toLane="1" dir="T" state="M"/>
    <connection from=":J0_10" to="edge_east_out" fromLane="0" toLane="0" dir="l" state="M"/>
    <connection from=":J0_11" to="edge_south_out" fromLane="0" toLane="0" dir="s" state="M"/>
    <connection from=":J0_11" to="edge_south_out" fromLane="1" toLane="1" dir="s" state="M"/>
    <connection from=":J0_13" to="edge_west_out" fromLane="0" toLane="1" via=":J0_24_0" dir="r" state="m"/>
    <connection from=":J0_24" to="edge_west_out" fromLane="0" toLane="1" dir="r" state="M"/>
    <connection from=":J0_14" to="edge_north_out" fromLane="0" toLane="1" via=":J0_25_0" dir="T" state="m"/>
    <connection from=":J0_25" to="edge_north_out" fromLane="0" toLane="1" dir="T" state="M"/>
    <connection from=":J0_15" to="edge_north_out" fromLane="0" toLane="0" dir="l" state="M"/>
    <connection from=":J0_16" to="edge_east_out" fromLane="0" toLane="0" dir="s" state="M"/>
    <connection from=":J0_16" to="edge_east_out" fromLane="1" toLane="1" dir="s" state="M"/>
    <connection from=":J0_18" to="edge_south_out" fromLane="0" toLane="1" via=":J0_26_0" dir="r" state="m"/>
    <connection from=":J0_26" to="edge_south_out" fromLane="0" toLane="1" dir="r" state="M"/>
    <connection from=":J0_19" to="edge_west_out" fromLane="0" toLane="1" via=":J0_27_0" dir="T" state="m"/>
    <connection from=":J0_27" to="edge_west_out" fromLane="0" toLane="1" dir="T" state="M"/>
    <connection from=":N1_0" to="edge_north_in" fromLane="0" toLane="1" dir="T" state="M"/>
    <connection from=":S1_0" to="edge_south_in" fromLane="0" toLane="1" dir="T" state="M"/>
    <connection from=":W1_0" to="edge_west_in" fromLane="0" toLane="1" dir="T" state="M"/>

</net>
