<nodes>
    <node id="J0" x="0.0" y="0.0" type="traffic_light"/>
    <node id="N1" x="0.0" y="250.0" type="priority"/>
    <node id="S1" x="0.0" y="-250.0" type="priority"/>
    <node id="E1" x="250.0" y="0.0" type="priority"/>
    <node id="W1" x="-250.0" y="0.0" type="priority"/>
</nodes>